SEP2/file.aux
Bus (Number,Name,AreaName,NomkV,Vpu,kV,Vangle,LoadMW,LoadMvar,GenMW,GenMvar,ShuntMvar,
   ActG,ActB,AreaNumber,ZoneNumber)
{
     1 "1"            "1" 138.00  1.00000  138.000     0.00 "" ""    70.00    17.88 ""     0.00     0.00        1        1
     2 "2"            "1" 138.00  1.00000  138.000    -0.78    50.00    16.00    80.00    52.20 ""     0.00     0.00        1        1
     3 "3"            "1" 138.00  0.96299  132.893    -4.96   100.00    44.00 "" "" ""     0.00     0.00        1        1
}
